/*--------------------------------*- C++ -*----------------------------------*\
| =========                 |                                                 |
| \\      /  F ield         | OpenFOAM: The Open Source CFD Toolbox           |
|  \\    /   O peration     | Version:  1.7.1                                 |
|   \\  /    A nd           | Web:      www.OpenFOAM.com                      |
|    \\/     M anipulation  |                                                 |
\*---------------------------------------------------------------------------*/
FoamFile
{
    version     2.0;
    format      ascii;
    class       vectorAverageField;
    object      values;
}
// * * * * * * * * * * * * * * * * * * * * * * * * * * * * * * * * * * * * * //

// Average
(0 0 0)

// Data on points
60
(

//min z
(0 18.9 0)
(0 18.78 0)
(0 18.79 0)
(0 18.67 0)
(0 18.62 0)
(0 18.38 0)
(0 18.27 0)
(0 17.97 0)
(0 17.68 0)
(0 17.32 0)
(0 17.03 0)
(0 16.79 0)
(0 16.32 0)
(0 15.79 0)
(0 15.13 0)
(0 14.42 0)
(0 13.41 0)
(0 12.52 0)
(0 11.50 0)
(0 10.43 0)
(0 9.30 0)
(0 8.41 0)
(0 7.33 0)
(0 5.19 0)
(0 4.4 0)
(0 4.17 0)
(0 3.34 0)
(0 1.49 0)
(0 0.48 0)
(0 0 0)

// max z
(0 18.9 0)
(0 18.78 0)
(0 18.79 0)
(0 18.67 0)
(0 18.62 0)
(0 18.38 0)
(0 18.27 0)
(0 17.97 0)
(0 17.68 0)
(0 17.32 0)
(0 17.03 0)
(0 16.79 0)
(0 16.32 0)
(0 15.79 0)
(0 15.13 0)
(0 14.42 0)
(0 13.41 0)
(0 12.52 0)
(0 11.50 0)
(0 10.43 0)
(0 9.30 0)
(0 8.41 0)
(0 7.33 0)
(0 5.19 0)
(0 4.4 0)
(0 4.17 0)
(0 3.34 0)
(0 1.49 0)
(0 0.48 0)
(0 0 0)
)

// ************************************************************************* //
